Within Level

 C#1        ON
    DESSOL             0.671      0.230      2.919      0.004

 Intercepts
    C#1               -1.897      0.481     -3.943      0.000

Between Level

 C#1        ON
    M_ISSOL2           1.132      1.150      0.985      0.325
    AGE               -0.004      0.008     -0.501      0.616
    GENDER            -0.500      0.392     -1.276      0.202
    IS_EURO           -0.112      0.399     -0.280      0.779
    EDUC              -0.015      0.110     -0.132      0.895
    M_DESSOL           1.870      0.942      1.986      0.047
    ISRELATI          -0.250      0.458     -0.546      0.585
    TOT_NETW           0.007      0.013      0.502      0.616
    REFL              -0.546      0.299     -1.827      0.068
    RUMI              -0.674      0.248     -2.721      0.007
    SIAS              -0.573      0.305     -1.878      0.060
    PSSE               0.805      0.321      2.504      0.012
    MACARTH            0.460      0.208      2.210      0.027
